/*--------------------------------*- C++ -*----------------------------------*\
| =========                 |                                                 |
| \\      /  F ield         | OpenFOAM: The Open Source CFD Toolbox           |
|  \\    /   O peration     | Version:  2.3.1                                 |
|   \\  /    A nd           | Web:      www.OpenFOAM.org                      |
|    \\/     M anipulation  |                                                 |
\*---------------------------------------------------------------------------*/
FoamFile
{
    version     2.0;
    format      ascii;
    class       extendedFeatureEdgeMesh;
    location    "constant/extendedFeatureEdgeMesh";
    object      SmoothR.extendedFeatureEdgeMesh;
}
// * * * * * * * * * * * * * * * * * * * * * * * * * * * * * * * * * * * * * //

// points

30
(
(46.972 0 -2.448)
(97.198 1.7 -2.448)
(97.198 0 -2.448)
(46.972 1.7 -2.448)
(46.972 0 -1.001)
(46.972 1.7 -1.001)
(97.198 0 0.523)
(97.198 1.7 0.523)
(50.625 0 -1.305)
(50.625 1.7 -1.305)
(54.28 0 -1.204)
(54.28 1.7 -1.204)
(57.941 0 -1.102)
(57.941 1.7 -1.102)
(61.6 0 -1)
(61.6 1.7 -1)
(65.256 0 -0.848)
(65.256 1.7 -0.848)
(68.911 0 -0.696)
(68.911 1.7 -0.696)
(72.578 0 -0.543)
(72.578 1.7 -0.543)
(76.225 0 -0.391)
(76.225 1.7 -0.391)
(79.879 0 -0.087)
(79.879 1.7 -0.087)
(83.542 0 0.219)
(83.542 1.7 0.219)
(87.198 0 0.523)
(87.198 1.7 0.523)
)

// edges

34
(
(1 2)
(2 0)
(0 3)
(3 1)
(0 4)
(4 5)
(5 3)
(4 8)
(9 5)
(8 10)
(11 9)
(10 12)
(13 11)
(12 14)
(15 13)
(14 16)
(17 15)
(16 18)
(19 17)
(18 20)
(21 19)
(20 22)
(23 21)
(22 24)
(25 23)
(24 26)
(27 25)
(26 28)
(29 27)
(28 6)
(6 7)
(7 29)
(6 2)
(1 7)
)

// concaveStart mixedStart nonFeatureStart
8 8 8
// internalStart flatStart openStart multipleStart
34 34 34 34
// normals

56
(
(0 0 -1)
(1 0 0)
(0 -1 0)
(0 0 -1)
(-1 0 0)
(0 1 0)
(-0 -1 0)
(-1 0 0)
(0.0829326 0 0.996555)
(0 1 0)
(0.0829326 -0 0.996555)
(-0.0276228 0 0.999618)
(0 -1 0)
(-0.0276228 0 0.999618)
(0 1 0)
(-0.0278504 0 0.999612)
(0 -1 0)
(-0.0278504 0 0.999612)
(0 1 0)
(-0.0278657 0 0.999612)
(0 -1 0)
(-0.0278657 0 0.999612)
(0 1 0)
(-0.0415396 0 0.999137)
(0 -1 0)
(-0.0415396 0 0.999137)
(0 1 0)
(-0.0415509 0 0.999136)
(0 -1 0)
(-0.0415509 0 0.999136)
(0 1 0)
(-0.0416872 0 0.999131)
(0 -1 0)
(-0.0416872 0 0.999131)
(0 1 0)
(-0.041642 0 0.999133)
(0 -1 0)
(-0.041642 0 0.999133)
(0 1 0)
(-0.0829101 0 0.996557)
(0 -1 0)
(-0.0829101 0 0.996557)
(0 1 0)
(-0.0832481 0 0.996529)
(0 -1 0)
(-0.0832481 0 0.996529)
(0 1 0)
(-0.0828651 0 0.996561)
(0 -1 0)
(-0.0828651 0 0.996561)
(0 1 0)
(0 0 1)
(-0 -1 -0)
(0 -0 1)
(1 0 0)
(0 1 0)
)

// normal volume types

56
(
0
0
0
0
0
0
0
0
0
0
0
0
0
0
0
0
0
0
0
0
0
0
0
0
0
0
0
0
0
0
0
0
0
0
0
0
0
0
0
0
0
0
0
0
0
0
0
0
0
0
0
0
0
0
0
0
)

// normalDirections

34
(
2(1 -1)
2(1 -1)
2(1 -1)
2(1 -1)
2(1 -1)
2(1 -1)
2(1 -1)
2(1 -1)
2(1 -1)
2(1 -1)
2(1 -1)
2(1 -1)
2(1 -1)
2(1 -1)
2(1 -1)
2(1 -1)
2(1 -1)
2(1 -1)
2(1 -1)
2(1 -1)
2(1 -1)
2(1 -1)
2(1 -1)
2(1 -1)
2(1 -1)
2(1 -1)
2(1 -1)
2(1 -1)
2(1 -1)
2(1 -1)
2(1 -1)
2(1 -1)
2(1 -1)
2(1 -1)
)

// edgeNormals

34
(
2(0 1)
2(0 2)
2(3 4)
2(3 5)
2(4 6)
2(7 8)
2(7 9)
2(8 6)
2(10 9)
2(11 12)
2(13 14)
2(15 16)
2(17 18)
2(19 20)
2(21 22)
2(23 24)
2(25 26)
2(27 28)
2(29 30)
2(31 32)
2(33 34)
2(35 36)
2(37 38)
2(39 40)
2(41 42)
2(43 44)
2(45 46)
2(47 48)
2(49 50)
2(51 52)
2(53 54)
2(53 55)
2(54 52)
2(1 55)
)

// featurePointNormals

8
(
3(0 2 4)
3(0 1 5)
3(0 1 2)
3(3 4 5)
3(4 6 8)
3(7 8 9)
3(51 52 54)
3(53 54 55)
)

// featurePointEdges

8
(
3(2 4 1)
3(3 33 0)
3(0 32 1)
3(2 6 3)
3(5 7 4)
3(5 8 6)
3(30 32 29)
3(30 33 31)
)

// regionEdges
0()


// ************************************************************************* //
