/*--------------------------------*- C++ -*----------------------------------*\
|       o          |                                                          |
|    o     o       | HELYX-OS                                                  |
|   o   O   o      | Version: v2.4.0                                           |
|    o     o       | Web:     http://www.engys.com                            |
|       o          |                                                          |
\*---------------------------------------------------------------------------*/
FoamFile
{
    version 2.0;
    format ascii;
    class dictionary;
    location system;
    object blockMeshDict;
}
/*---------------------------------------------------------------------------*/
    convertToMeters 1;
    vertices  
    (
      (-34.1220 0.0 -2.448) // 0
	  ( 43.3130 0.0 -2.448) // 1
	  ( 43.3130 0.0 -1.001) // 2
	  ( 43.8925 0.0 -1.001) // 3
	  ( 43.8925 0.0 -1.105) // 4
	  ( 46.3925 0.0 -1.105) // 5
	  ( 46.3925 0.0 -1.001) // 6
	  ( 46.9720 0.0 -1.001) // 7
	  ( 46.9720 0.0 -2.448) // 8
	  ( 97.1980 0.0 -2.448) // 9
	  ( 97.1980 0.0 -1.001) //10
	  ( 97.1980 0.0  2.5065) //11
	  ( 46.9720 0.0  2.5065) //12
	  ( 46.3925 0.0  2.5065) //13
	  ( 43.8925 0.0  2.5065) //14
	  ( 43.3130 0.0  2.5065) //15
	  (-34.1220 0.0  2.5065) //16
	  (-34.1220 0.0 -1.001) //17
	  
	  (-34.1220 0.03 -2.448) //18
	  ( 43.3130 0.03 -2.448) //19
	  ( 43.3130 0.03 -1.001) //20
	  ( 43.8925 0.03 -1.001) //21
	  ( 43.8925 0.03 -1.105) //22
	  ( 46.3925 0.03 -1.105) //23
	  ( 46.3925 0.03 -1.001) //24
	  ( 46.9720 0.03 -1.001) //25
	  ( 46.9720 0.03 -2.448) //26
	  ( 97.1980 0.03 -2.448) //27
	  ( 97.1980 0.03 -1.001) //28
	  ( 97.1980 0.03  2.5065) //29
	  ( 46.9720 0.03  2.5065) //30
	  ( 46.3925 0.03  2.5065) //31
	  ( 43.8925 0.03  2.5065) //32
	  ( 43.3130 0.03  2.5065) //33
	  (-34.1220 0.03  2.5065) //34
	  (-34.1220 0.03 -1.001) //35
	  
    );
    blocks  
    ( 
         hex (0 1 19 18 17 2 20 35)   (4840 1 180) simpleGrading (1 1 1)
	 hex (17 2 20 35 16 15 33 34) (4840 1 438) simpleGrading (1 1 1)
	 hex (2 3 21 20 15 14 32 33)  (36   1 438) simpleGrading (1 1 1)
	 hex (3 6 24 21 14 13 31 32)  (157  1 438) simpleGrading (1 1 1)
	 hex (4 5 23 22 3 6 24 21)    (157  1  13) simpleGrading (1 1 1)
	 hex (6 7 25 24 13 12 30 31)  (36  1 438) simpleGrading (1 1 1)
	 hex (7 10 28 25 12 11 29 30) (3139 1 438) simpleGrading (1 1 1)
	 hex (8 9 27 26 7 10 28 25)   (3139 1 180) simpleGrading (1 1 1)

    );
    edges  
    (
    );
    boundary 
    ( 
    inlet
    {
      type patch;
      faces
      (
	  (0 17 35 18)
	  (17 16 34 35)	  
      );
    }
    backWall
    {
      type wall;
      faces
      (
	  (9 27 28 10)
	  (10 28 29 11)	  
      );
    }
    sideWallL
    {
      type empty;//cyclic;
      faces
      (
	  (0 1 2 17)
	  (17 2 15 16)
	  (2 3 14 15)
	  (3 6 13 14)
	  (4 5 6 3)
	  (6 7 12 13)
	  (7 10 11 12)
	  (8 9 10 7)
      );
    }
    sideWallR
    {
      type empty;//cyclic;
      faces
      (
	  (18 35 20 19)
	  (35 34 33 20)
	  (20 33 32 21)
	  (21 32 31 24)
	  (22 21 24 23)
	  (24 31 30 25)
	  (25 30 29 28)
	  (26 25 28 27)
      );
    }
    bottom1
    {
      type wall;//patch;
      faces
      (
	  (0 18 19 1)
	  (1 19 20 2)
	  (2 20 21 3)
	  (3 21 22 4)
	  (4 22 23 5)
	  (5 23 24 6)
	  (6 24 25 7)
	  (7 25 26 8)
	  (8 26 27 9)
      );
    }
    atmosphere
    {
      type patch;
      faces
      (
	  (16 15 33 34)
	  (15 14 32 33)
	  (14 13 31 32)
	  (13 12 30 31)
	  (12 11 29 30)
      );
    }
    );

    mergePatchPairs  
    (
    );











